<?xml version="1.0" encoding="UTF-8"?>
<routes xmlns:xsi="http://www.w3.org/2001/XMLSchema-instance" xsi:noNamespaceSchemaLocation="https://sumo.dlr.de/xsd/routes_file.xsd">
    <vType id="basic_car" accel="0.8" decel="4.5" length="5" maxSpeed="20" guiShape="passenger"/>
    <vType id="cav_car" accel="0.8" decel="4.5" length="5" maxSpeed="20" guiShape="passenger" color="0,255,0"/>
    <vType id="crash_car" accel="0.8" decel="4.5" length="5" maxSpeed="20" guiShape="passenger" color="255,0,0"/>

    <route id="route_0" edges="highway"/>

    <vehicle id="target_car" type="crash_car" route="route_0" depart="0" departLane="1"/>
    <flow id="background_traffic" type="basic_car" route="route_0" begin="2" end="500" probability="0.9"/>
    <flow id="cav_traffic" type="cav_car" route="route_0" begin="2" end="500" probability="0.3"/>

</routes>