<?xml version="1.0" encoding="UTF-8"?>

<!-- generated on 2026-04-12T03:39:29.073520-05:00 by Eclipse SUMO sumo 1.26.0
-->

<sumoConfiguration xmlns:xsi="http://www.w3.org/2001/XMLSchema-instance" xsi:noNamespaceSchemaLocation="http://sumo.dlr.de/xsd/sumoConfiguration.xsd">

    <input>
        <net-file value="road_map.xml"/>
        <route-files value="demandtest.rou.xml"/>
    </input>

</sumoConfiguration>
