<?xml version="1.0" encoding="UTF-8"?>
<routes xmlns:xsi="http://www.w3.org/2001/XMLSchema-instance" xsi:noNamespaceSchemaLocation="http://sumo.dlr.de/xsd/routes_file.xsd">
    <vType id="basic_car" accel="0.8" decel="4.5" length="5" maxSpeed="15" guiShape="passenger"/>

    <route id="route_0" edges="edge1"/>

    <vehicle id="car_1" type="basic_car" route="route_0" depart="0"/>
    <vehicle id="car_2" type="basic_car" route="route_0" depart="5"/>
    <vehicle id="car_3" type="basic_car" route="route_0" depart="10"/>
</routes>