<routes>
    
    <vType id="standard_veh" carFollowModel="IDM" accel="2.0" decel="4.0" tau="1.4" minGap="2.5" maxSpeed="60" sigma="0.5" color="white" />
    <vType id="connected_veh" carFollowModel="IDM" accel="2.0" decel="4.0" tau="1.4" minGap="2.5" maxSpeed="60" sigma="0.1" color="white">
        <param key="device.rerouting.period" value="10" />
    </vType>

    
    
    <flow id="fwy_south" begin="0" end="3600" vehsPerHour="5000.0" type="standard_veh" from="49287172" to="759480768" departLane="best" departSpeed="max" departPos="random" />

    <flow id="fwy_north" begin="0" end="3600" vehsPerHour="5000.0" type="standard_veh" from="49436951" to="769195692" departLane="best" departSpeed="max" departPos="random" />


    <flow id="sep_south" begin="0" end="3600" vehsPerHour="1200.0" type="standard_veh" from="149003093#0" to="382452795#3" departLane="best" departPos="random" />
    <flow id="sep_north" begin="0" end="3600" vehsPerHour="1200.0" type="standard_veh" from="-382452795#3" to="-149003093#0" departLane="best" departPos="random" />

    <flow id="saw_south" begin="0" end="3600" vehsPerHour="600.0" type="standard_veh" from="159606597#0" to="-398372838#6" departLane="best" departPos="random" />
    <flow id="saw_north" begin="0" end="3600" vehsPerHour="600.0" type="standard_veh" from="398372838#6" to="-159606597#0" departLane="best" departPos="random" />


    <flow id="side_to_hwy_S" begin="0" end="3600" vehsPerHour="300.0" type="standard_veh" from="384187981" to="759480768" departPos="random" />

    <flow id="side_to_hwy_N" begin="0" end="3600" vehsPerHour="300.0" type="standard_veh" from="719674433" to="769195692" departPos="random" />

    
    </routes>